-------------------------------------------------------
          Amber 18 PMEMD                              2018
          -------------------------------------------------------

  [-O]verwriting output

File Assignments:

 Here is the input file:

equilibration_second_stage
&cntrl
  imin   = 0,
  irest  = 0, !run a new simulation
  ntx    = 1,
  ntb    = 1,
  cut    = 12.0,
  ntr    = 1,
  ntc    = 2,    ! 2 to use SHAKE
  tempi  = 50.0,
  temp0  = 300.0,
  ig     = -1 , ! set this to -1 for random velocity
  ntt    = 3, ! Langevin dynamics
  gamma_ln = 5.0,
  nstlim = 10000,
  dt = 0.002,
  ntpr = 100, ! print frequency
  ntwx = 0, ! every ntwx write to traj file
  ntwr = 50000, ! frequency for writing restart file
  restraint_wt= 10 ,  ! force constant for restraint
  restraintmask=':1-466 & !@H=', ! restrain residues 1 to 466 including the lig
 /

Note: ig = -1. Setting random seed to   776544 based on wallclock time in
      microseconds.

--------------------------------------------------------------------------------
   1.  RESOURCE   USE:
--------------------------------------------------------------------------------

 getting box info from netcdf restart file
 NATOM  =   65666 NTYPES =      18 NBONH =   61880 MBONA  =    3901
 NTHETH =    8552 MTHETA =    5327 NPHIH =   17372 MPHIA  =   16444
 NHPARM =       0 NPARM  =       0 NNB   =  119385 NRES   =   19841
 NBONA  =    3901 NTHETA =    5327 NPHIA =   16444 NUMBND =      97
 NUMANG =     225 NPTRA  =     220 NATYP =      51 NPHB   =       1
 IFBOX  =       2 NMXRS  =      73 IFCAP =       0 NEXTRA =       0
 NCOPY  =       0

     BOX TYPE: TRUNCATED OCTAHEDRON

--------------------------------------------------------------------------------
   2.  CONTROL  DATA  FOR  THE  RUN
--------------------------------------------------------------------------------

default_name

General flags:
     imin    =       0, nmropt  =       0

Nature and format of input:
     ntx     =       1, irest   =       0, ntrx    =       1

Nature and format of output:
     ntxo    =       2, ntpr    =     100, ntrx    =       1, ntwr    =   50000
     iwrap   =       0, ntwx    =       0, ntwv    =       0, ntwe    =       0
     ioutfm  =       1, ntwprt  =       0, idecomp =       0, rbornstat=      0

Potential function:
     ntf     =       1, ntb     =       1, igb     =       0, nsnb    =      25
     ipol    =       0, gbsa    =       0, iesp    =       0
     dielc   =   1.00000, cut     =  12.00000, intdiel =   1.00000

Frozen or restrained atoms:
     ibelly  =       0, ntr     =       1
     restraint_wt =  10.00000

Molecular dynamics:
     nstlim  =     10000, nscm    =         0, nrespa  =         1
     t       =   0.00000, dt      =   0.00200, vlimit  =  -1.00000

Langevin dynamics temperature regulation:
     ig      =  776544
     temp0   = 300.00000, tempi   =  50.00000, gamma_ln=   5.00000

SHAKE:
     ntc     =       2, jfastw  =       0
     tol     =   0.00001

Ewald parameters:
     verbose =       0, ew_type =       0, nbflag  =       1, use_pme =       1
     vdwmeth =       1, eedmeth =       1, netfrc  =       1
     Box X =   98.221   Box Y =   98.221   Box Z =   98.221
     Alpha =  109.471   Beta  =  109.471   Gamma =  109.471
     NFFT1 =  100       NFFT2 =  100       NFFT3 =  100
     Cutoff=   12.000   Tol   =0.100E-04
     Ewald Coefficient =  0.22664
     Interpolation order =    4

    LOADING THE CONSTRAINED ATOMS AS GROUPS

   5.  REFERENCE ATOM COORDINATES

  default_name
     Mask :1-466 & !@H=; matches  3693 atoms

--------------------------------------------------------------------------------
   3.  ATOMIC COORDINATES AND VELOCITIES
--------------------------------------------------------------------------------

default_name
 begin time read from input coords =     0.000 ps

 Number of triangulated 3-point waters found:    19372

     Sum of charges from parm topology file =  -0.00599616
     Forcing neutrality...

--------------------------------------------------------------------------------
   4.  RESULTS
 NSTEP =        0   TIME(PS) =       0.000  TEMP(K) =    72.89  PRESS =     0.0
 Etot   =   -254143.6813  EKtot   =      9785.2756  EPtot      =   -263928.9569
 BOND   =     20069.2107  ANGLE   =      1271.7530  DIHED      =      5609.3990
 1-4 NB =      1542.5217  1-4 EEL =     14867.7589  VDWAALS    =     46982.3937
 EELEC  =   -354271.9940  EHBOND  =         0.0000  RESTRAINT  =         0.0000
 ------------------------------------------------------------------------------

      A V E R A G E S   O V E R     100 S T E P S

 NSTEP =    10000   TIME(PS) =      20.000  TEMP(K) =   298.05  PRESS =     0.0
 Etot   =   -152165.7632  EKtot   =     40013.4210  EPtot      =   -192179.1842
 BOND   =      1447.9577  ANGLE   =      4015.8143  DIHED      =      6268.6314
 1-4 NB =      1737.6913  1-4 EEL =     14828.2926  VDWAALS    =     21938.2550
 EELEC  =   -243137.8477  EHBOND  =         0.0000  RESTRAINT  =       722.0213
 EAMBER (non-restraint)  =   -192901.2055
 ------------------------------------------------------------------------------

      R M S  F L U C T U A T I O N S

 NSTEP =    10000   TIME(PS) =      20.000  TEMP(K) =    11.89  PRESS =     0.0
 Etot   =      4652.0754  EKtot   =      1596.8112  EPtot      =      3084.1132
 BOND   =        48.3638  ANGLE   =       111.4737  DIHED      =        31.9613
 1-4 NB =        14.8782  1-4 EEL =        41.2117  VDWAALS    =      1744.2658
 EELEC  =      4614.5635  EHBOND  =         0.0000  RESTRAINT  =        31.1029
 EAMBER (non-restraint)  =      3053.0103
 ------------------------------------------------------------------------------
